xflr5 v6.11

 Calculated polar for: NACA 63012 AIRFOIL

 1 1 Reynolds number fixed          Mach number fixed         

 xtrf =   0.050 (top)        0.100 (bottom)
 Mach =   0.500     Re =     1.000 e 6     Ncrit =   1.000

  alpha     CL        CD       CDp       Cm    Top Xtr Bot Xtr   Cpmin    Chinge    XCp    
 ------- -------- --------- --------- -------- ------- ------- -------- --------- ---------
  -2.000  -0.2528   0.01078   0.00232  -0.0023  0.0500  0.1000  -0.7518   0.0000   0.2367
  -1.900  -0.2403   0.01077   0.00229  -0.0022  0.0500  0.1000  -0.7133   0.0000   0.2369
  -1.800  -0.2277   0.01076   0.00226  -0.0020  0.0500  0.1000  -0.6755   0.0000   0.2371
  -1.700  -0.2151   0.01075   0.00224  -0.0019  0.0500  0.1000  -0.6402   0.0000   0.2373
  -1.600  -0.2026   0.01074   0.00221  -0.0017  0.0500  0.1000  -0.6053   0.0000   0.2375
  -1.500  -0.1900   0.01073   0.00219  -0.0016  0.0500  0.1000  -0.5768   0.0000   0.2378
  -1.400  -0.1775   0.01072   0.00217  -0.0014  0.0500  0.1000  -0.5581   0.0000   0.2380
  -1.300  -0.1649   0.01071   0.00216  -0.0013  0.0500  0.1000  -0.5419   0.0000   0.2382
  -1.200  -0.1524   0.01071   0.00214  -0.0012  0.0500  0.1000  -0.5259   0.0000   0.2385
  -1.100  -0.1398   0.01070   0.00213  -0.0010  0.0500  0.1000  -0.5099   0.0000   0.2388
  -1.000  -0.1273   0.01070   0.00211  -0.0009  0.0500  0.1000  -0.4948   0.0000   0.2391
  -0.900  -0.1148   0.01069   0.00210  -0.0008  0.0500  0.1000  -0.4868   0.0000   0.2395
  -0.800  -0.1023   0.01069   0.00209  -0.0006  0.0500  0.1000  -0.4790   0.0000   0.2399
  -0.700  -0.0897   0.01069   0.00208  -0.0005  0.0500  0.1000  -0.4712   0.0000   0.2405
  -0.600  -0.0772   0.01069   0.00207  -0.0004  0.0500  0.1000  -0.4633   0.0000   0.2412
  -0.500  -0.0647   0.01069   0.00207  -0.0003  0.0500  0.1000  -0.4556   0.0000   0.2421
  -0.400  -0.0522   0.01069   0.00206  -0.0001  0.0500  0.1000  -0.4480   0.0000   0.2435
  -0.300  -0.0397   0.01069   0.00206  -0.0000  0.0500  0.1000  -0.4404   0.0000   0.2458
  -0.200  -0.0272   0.01069   0.00206   0.0001  0.0500  0.1000  -0.4328   0.0000   0.2500
  -0.100  -0.0147   0.01070   0.00206   0.0002  0.0500  0.1000  -0.4252   0.0000   0.2616
   0.000  -0.0022   0.01070   0.00206   0.0003  0.0500  0.1000  -0.4177   0.0000   0.4073
   0.100   0.0103   0.01070   0.00207   0.0005  0.0500  0.1000  -0.4234   0.0000   0.2008
   0.200   0.0228   0.01071   0.00207   0.0006  0.0500  0.1000  -0.4310   0.0000   0.2203
   0.300   0.0353   0.01072   0.00208   0.0007  0.0500  0.1000  -0.4386   0.0000   0.2260
   0.400   0.0478   0.01072   0.00208   0.0008  0.0500  0.1000  -0.4462   0.0000   0.2286
   0.500   0.0603   0.01073   0.00209   0.0010  0.0500  0.1000  -0.4538   0.0000   0.2302
   0.600   0.0728   0.01074   0.00210   0.0011  0.0500  0.1000  -0.4616   0.0000   0.2312
   0.700   0.0853   0.01075   0.00211   0.0012  0.0500  0.1000  -0.4694   0.0000   0.2319
   0.800   0.0978   0.01076   0.00213   0.0013  0.0500  0.1000  -0.4772   0.0000   0.2324
   0.900   0.1103   0.01078   0.00214   0.0015  0.0500  0.1000  -0.4851   0.0000   0.2327
   1.000   0.1228   0.01079   0.00216   0.0016  0.0500  0.1000  -0.4931   0.0000   0.2330
   1.100   0.1353   0.01080   0.00218   0.0017  0.0500  0.1000  -0.5011   0.0000   0.2332
   1.200   0.1478   0.01082   0.00220   0.0019  0.0500  0.1000  -0.5107   0.0000   0.2333
   1.300   0.1603   0.01083   0.00222   0.0020  0.0500  0.1000  -0.5305   0.0000   0.2334
   1.400   0.1728   0.01085   0.00224   0.0022  0.0500  0.1000  -0.5528   0.0000   0.2335
   1.500   0.1853   0.01087   0.00226   0.0023  0.0500  0.1000  -0.5754   0.0000   0.2335
   1.600   0.1978   0.01089   0.00229   0.0025  0.0500  0.1000  -0.5988   0.0000   0.2335
   1.700   0.2103   0.01090   0.00232   0.0026  0.0500  0.1000  -0.6322   0.0000   0.2335
   1.800   0.2227   0.01093   0.00235   0.0028  0.0500  0.1000  -0.6674   0.0000   0.2335
   1.900   0.2352   0.01095   0.00238   0.0029  0.0500  0.1000  -0.7044   0.0000   0.2334
   2.000   0.2477   0.01097   0.00241   0.0031  0.0500  0.1000  -0.7427   0.0000   0.2333
   2.100   0.2602   0.01099   0.00244   0.0033  0.0500  0.1000  -0.7814   0.0000   0.2333
   2.200   0.2727   0.01102   0.00248   0.0034  0.0500  0.1000  -0.8265   0.0000   0.2332
   2.300   0.2852   0.01104   0.00252   0.0036  0.0500  0.1000  -0.8868   0.0000   0.2330
   2.400   0.2977   0.01107   0.00256   0.0038  0.0500  0.1000  -0.9482   0.0000   0.2329
   2.500   0.3102   0.01110   0.00260   0.0040  0.0500  0.1000  -1.0109   0.0000   0.2328
   2.600   0.3227   0.01113   0.00264   0.0042  0.0500  0.1000  -1.0748   0.0000   0.2326
   2.700   0.3351   0.01116   0.00269   0.0044  0.0494  0.1000  -1.1398   0.0000   0.2324
   2.800   0.3473   0.01122   0.00275   0.0047  0.0462  0.1000  -1.2052   0.0000   0.2321
   2.900   0.3594   0.01128   0.00281   0.0049  0.0429  0.1000  -1.2718   0.0000   0.2317
   3.000   0.3715   0.01134   0.00287   0.0052  0.0397  0.1000  -1.3395   0.0000   0.2314
   3.100   0.3836   0.01140   0.00294   0.0055  0.0368  0.1000  -1.4085   0.0000   0.2310
   3.200   0.3956   0.01147   0.00301   0.0058  0.0333  0.1000  -1.4785   0.0000   0.2306
   3.300   0.4074   0.01156   0.00309   0.0062  0.0286  0.1000  -1.5492   0.0000   0.2301
   3.400   0.4191   0.01165   0.00318   0.0065  0.0240  0.1000  -1.6211   0.0000   0.2296
   3.500   0.4309   0.01174   0.00327   0.0069  0.0199  0.1000  -1.6948   0.0000   0.2292
   3.600   0.4427   0.01182   0.00336   0.0073  0.0170  0.1000  -1.7701   0.0000   0.2287
   3.700   0.4548   0.01189   0.00344   0.0076  0.0156  0.1000  -1.8473   0.0000   0.2283
   3.800   0.4668   0.01197   0.00353   0.0080  0.0145  0.1000  -1.9291   0.0000   0.2280
   3.900   0.4788   0.01204   0.00362   0.0083  0.0135  0.1000  -2.0135   0.0000   0.2276
   4.000   0.4908   0.01212   0.00371   0.0087  0.0127  0.1000  -2.0995   0.0000   0.2272
   4.100   0.5028   0.01220   0.00381   0.0091  0.0120  0.1000  -2.1872   0.0000   0.2267
   4.200   0.5148   0.01228   0.00391   0.0095  0.0114  0.1000  -2.2765   0.0000   0.2263
   4.300   0.5267   0.01236   0.00401   0.0099  0.0110  0.1000  -2.3674   0.0000   0.2259
   4.400   0.5387   0.01245   0.00412   0.0103  0.0106  0.1000  -2.4600   0.0000   0.2255
   4.500   0.5506   0.01253   0.00423   0.0108  0.0103  0.1000  -2.5542   0.0000   0.2250
   4.600   0.5625   0.01262   0.00434   0.0112  0.0101  0.1000  -2.6500   0.0000   0.2246
   4.700   0.5744   0.01272   0.00446   0.0117  0.0099  0.1000  -2.7473   0.0000   0.2241
   4.800   0.5862   0.01281   0.00458   0.0121  0.0098  0.1000  -2.8462   0.0000   0.2236
   4.900   0.5980   0.01291   0.00471   0.0126  0.0096  0.1000  -2.9466   0.0000   0.2231
   5.000   0.6098   0.01302   0.00484   0.0132  0.0095  0.1000  -3.0485   0.0000   0.2226
   5.100   0.6214   0.01312   0.00498   0.0137  0.0094  0.1000  -3.1518   0.0000   0.2220
   5.200   0.6331   0.01324   0.00513   0.0143  0.0092  0.1000  -3.2566   0.0000   0.2215
   5.300   0.6446   0.01335   0.00528   0.0148  0.0091  0.1000  -3.3627   0.0000   0.2209
   5.400   0.6561   0.01348   0.00544   0.0154  0.0090  0.1000  -3.4703   0.0000   0.2203
   5.500   0.6675   0.01361   0.00561   0.0161  0.0089  0.1000  -3.5794   0.0000   0.2196
   5.600   0.6788   0.01374   0.00578   0.0167  0.0087  0.1000  -3.6900   0.0000   0.2190
   5.700   0.6900   0.01389   0.00596   0.0174  0.0086  0.1000  -3.8029   0.0000   0.2183
   5.800   0.7010   0.01404   0.00616   0.0181  0.0084  0.1000  -3.9225   0.0000   0.2175
   5.900   0.7119   0.01420   0.00636   0.0189  0.0083  0.1000  -4.0426   0.0000   0.2168
   6.000   0.7227   0.01436   0.00657   0.0196  0.0082  0.1000  -4.1623   0.0000   0.2160
   6.100   0.7333   0.01454   0.00680   0.0205  0.0081  0.1000  -4.2819   0.0000   0.2152
   6.200   0.7437   0.01473   0.00704   0.0213  0.0080  0.1000  -4.4009   0.0000   0.2143
   6.300   0.7538   0.01494   0.00731   0.0222  0.0079  0.1000  -4.5190   0.0000   0.2134
   6.400   0.7637   0.01516   0.00758   0.0232  0.0078  0.1000  -4.6356   0.0000   0.2124
   6.500   0.7731   0.01540   0.00789   0.0242  0.0077  0.1000  -4.7499   0.0000   0.2113
   6.600   0.7822   0.01566   0.00821   0.0253  0.0076  0.1000  -4.8611   0.0000   0.2102
   6.700   0.7908   0.01595   0.00857   0.0265  0.0075  0.1000  -4.9684   0.0000   0.2089
   6.800   0.7989   0.01626   0.00895   0.0277  0.0075  0.1000  -5.0708   0.0000   0.2076
   6.900   0.8065   0.01660   0.00937   0.0290  0.0074  0.1000  -5.1741   0.0000   0.2062
   7.000   0.8135   0.01697   0.00982   0.0303  0.0072  0.1000  -5.2752   0.0000   0.2047
   7.100   0.8200   0.01738   0.01031   0.0318  0.0071  0.1000  -5.3709   0.0000   0.2031
   7.200   0.8252   0.01782   0.01084   0.0334  0.0069  0.1000  -5.4524   0.0000   0.2013
   7.300   0.8286   0.01831   0.01142   0.0352  0.0068  0.1000  -5.5132   0.0000   0.1991
   7.400   0.8316   0.01883   0.01204   0.0371  0.0067  0.1000  -5.5675   0.0000   0.1969
   7.500   0.8343   0.01942   0.01274   0.0389  0.0066  0.1000  -5.6142   0.0000   0.1947
   7.600   0.8370   0.02011   0.01354   0.0407  0.0065  0.1000  -5.6532   0.0000   0.1926
   7.700   0.8396   0.02088   0.01443   0.0424  0.0064  0.1000  -5.6835   0.0000   0.1907
   7.800   0.8417   0.02173   0.01540   0.0440  0.0063  0.1000  -5.7157   0.0000   0.1887
   7.900   0.8431   0.02267   0.01646   0.0456  0.0062  0.1000  -5.7372   0.0000   0.1868
   8.000   0.8436   0.02368   0.01761   0.0472  0.0060  0.1000  -5.7474   0.0000   0.1848
   8.100   0.8432   0.02476   0.01880   0.0487  0.0059  0.1000  -5.7502   0.0000   0.1828
   8.200   0.8417   0.02590   0.02007   0.0503  0.0057  0.1000  -5.7407   0.0000   0.1808
   8.300   0.8394   0.02709   0.02138   0.0517  0.0056  0.1000  -5.7269   0.0000   0.1787
   8.400   0.8365   0.02829   0.02269   0.0531  0.0055  0.1000  -5.7146   0.0000   0.1768
   8.500   0.8330   0.02953   0.02403   0.0543  0.0055  0.1000  -5.6996   0.0000   0.1749
   8.600   0.8289   0.03081   0.02541   0.0554  0.0054  0.1000  -5.6825   0.0000   0.1730
   8.700   0.8243   0.03213   0.02683   0.0564  0.0054  0.1000  -5.6636   0.0000   0.1713
   8.800   0.8193   0.03350   0.02829   0.0572  0.0053  0.1000  -5.6473   0.0000   0.1698
   8.900   0.8139   0.03492   0.02979   0.0578  0.0053  0.1000  -5.6313   0.0000   0.1683
   9.000   0.8082   0.03640   0.03135   0.0583  0.0053  0.1000  -5.6137   0.0000   0.1671
   9.100   0.8023   0.03794   0.03296   0.0586  0.0052  0.1000  -5.5947   0.0000   0.1660
   9.200   0.7962   0.03954   0.03464   0.0587  0.0052  0.1000  -5.5737   0.0000   0.1652
   9.300   0.7899   0.04121   0.03638   0.0586  0.0052  0.1000  -5.5509   0.0000   0.1645
   9.400   0.7834   0.04296   0.03819   0.0583  0.0051  0.1000  -5.5265   0.0000   0.1641
   9.500   0.7768   0.04479   0.04008   0.0579  0.0051  0.1000  -5.5006   0.0000   0.1638
   9.600   0.7701   0.04670   0.04204   0.0572  0.0051  0.1000  -5.4732   0.0000   0.1638
   9.700   0.7634   0.04868   0.04409   0.0564  0.0051  0.1000  -5.4441   0.0000   0.1641
   9.800   0.7567   0.05076   0.04621   0.0554  0.0051  0.1000  -5.4135   0.0000   0.1646
   9.900   0.7499   0.05292   0.04843   0.0542  0.0050  0.1000  -5.3811   0.0000   0.1653
  10.000   0.7431   0.05518   0.05073   0.0529  0.0050  0.1000  -5.3464   0.0000   0.1663
  10.100   0.7364   0.05755   0.05313   0.0513  0.0050  0.1000  -5.3093   0.0000   0.1675
  10.200   0.7298   0.06001   0.05563   0.0497  0.0050  0.1000  -5.2692   0.0000   0.1690
  10.300   0.7232   0.06259   0.05825   0.0479  0.0050  0.1000  -5.2261   0.0000   0.1707
  10.400   0.7167   0.06528   0.06097   0.0460  0.0050  0.1000  -5.1788   0.0000   0.1726
  10.500   0.7104   0.06810   0.06382   0.0439  0.0050  0.1000  -5.1259   0.0000   0.1748
  10.600   0.7041   0.07106   0.06681   0.0418  0.0051  0.1000  -5.0656   0.0000   0.1772
  10.700   0.6980   0.07417   0.06994   0.0396  0.0051  0.1000  -4.9957   0.0000   0.1797
  10.800   0.6920   0.07747   0.07326   0.0374  0.0051  0.1000  -4.9116   0.0000   0.1823
  10.900   0.6862   0.08100   0.07678   0.0353  0.0051  0.1000  -4.8105   0.0000   0.1850
  11.000   0.6806   0.08417   0.07995   0.0334  0.0051  0.1000  -4.7238   0.0000   0.1873
  11.100   0.6754   0.08715   0.08292   0.0316  0.0051  0.1000  -4.6448   0.0000   0.1895
  11.200   0.6704   0.09002   0.08579   0.0299  0.0051  0.1000  -4.5695   0.0000   0.1916
  11.300   0.6658   0.09282   0.08858   0.0282  0.0051  0.1000  -4.4965   0.0000   0.1937
  11.400   0.6614   0.09556   0.09131   0.0267  0.0051  0.1000  -4.4252   0.0000   0.1957
  11.500   0.6574   0.09826   0.09400   0.0251  0.0050  0.1000  -4.3553   0.0000   0.1978
  11.600   0.6536   0.10091   0.09665   0.0236  0.0050  0.1000  -4.2869   0.0000   0.1998
  11.700   0.6503   0.10353   0.09926   0.0222  0.0050  0.1000  -4.2201   0.0000   0.2017
  11.800   0.6472   0.10611   0.10183   0.0207  0.0049  0.1000  -4.1552   0.0000   0.2037
  11.900   0.6446   0.10865   0.10437   0.0193  0.0049  0.1000  -4.0926   0.0000   0.2057
  12.000   0.6423   0.11114   0.10686   0.0180  0.0048  0.1000  -4.0328   0.0000   0.2076
  12.100   0.6403   0.11360   0.10930   0.0166  0.0048  0.1000  -3.9763   0.0000   0.2095
  12.200   0.6385   0.11606   0.11176   0.0153  0.0047  0.1000  -3.9164   0.0000   0.2114
  12.300   0.6370   0.11851   0.11421   0.0140  0.0047  0.1000  -3.8556   0.0000   0.2134
  12.400   0.6357   0.12091   0.11661   0.0127  0.0046  0.1000  -3.8002   0.0000   0.2153
  12.500   0.6349   0.12327   0.11896   0.0115  0.0046  0.1000  -3.7507   0.0000   0.2171
  12.600   0.6343   0.12560   0.12129   0.0103  0.0045  0.1000  -3.7032   0.0000   0.2189
  12.700   0.6339   0.12790   0.12358   0.0091  0.0045  0.1000  -3.6576   0.0000   0.2207
  12.800   0.6339   0.13017   0.12586   0.0079  0.0044  0.1000  -3.6141   0.0000   0.2225
  12.900   0.6341   0.13241   0.12809   0.0067  0.0044  0.1000  -3.5727   0.0000   0.2243
  13.000   0.6344   0.13463   0.13030   0.0056  0.0043  0.1000  -3.5332   0.0000   0.2260
  13.100   0.6350   0.13682   0.13249   0.0045  0.0043  0.1000  -3.4948   0.0000   0.2277
  13.200   0.6358   0.13899   0.13466   0.0034  0.0042  0.1000  -3.4580   0.0000   0.2293
  13.300   0.6369   0.14113   0.13681   0.0023  0.0041  0.1000  -3.4240   0.0000   0.2309
  13.400   0.6381   0.14324   0.13892   0.0012  0.0040  0.1000  -3.3931   0.0000   0.2325
  13.500   0.6396   0.14531   0.14098   0.0002  0.0039  0.1000  -3.3659   0.0000   0.2341
  13.600   0.6413   0.14735   0.14302  -0.0009  0.0039  0.1000  -3.3429   0.0000   0.2356
  13.700   0.6429   0.14939   0.14507  -0.0019  0.0038  0.1000  -3.3161   0.0000   0.2371
  13.800   0.6446   0.15148   0.14715  -0.0029  0.0037  0.1000  -3.2837   0.0000   0.2386
  13.900   0.6464   0.15352   0.14919  -0.0040  0.0037  0.1000  -3.2603   0.0000   0.2401
  14.000   0.6484   0.15554   0.15122  -0.0050  0.0036  0.1000  -3.2385   0.0000   0.2415
  14.100   0.6505   0.15755   0.15322  -0.0060  0.0035  0.1000  -3.2180   0.0000   0.2429
  14.200   0.6527   0.15954   0.15521  -0.0070  0.0035  0.1000  -3.1985   0.0000   0.2443
  14.300   0.6551   0.16153   0.15721  -0.0080  0.0034  0.1000  -3.1801   0.0000   0.2457
  14.400   0.6575   0.16350   0.15918  -0.0090  0.0034  0.1000  -3.1620   0.0000   0.2471
  14.500   0.6600   0.16546   0.16113  -0.0099  0.0033  0.1000  -3.1449   0.0000   0.2484
  14.600   0.6625   0.16740   0.16308  -0.0109  0.0032  0.1000  -3.1293   0.0000   0.2497
  14.700   0.6652   0.16934   0.16503  -0.0119  0.0031  0.1000  -3.1162   0.0000   0.2510
  14.800   0.6680   0.17125   0.16693  -0.0128  0.0031  0.1000  -3.1062   0.0000   0.2523
  14.900   0.6709   0.17312   0.16880  -0.0138  0.0030  0.1000  -3.0961   0.0000   0.2535
  15.000   0.6736   0.17513   0.17081  -0.0148  0.0029  0.1000  -3.0717   0.0000   0.2548
  15.100   0.6764   0.17708   0.17276  -0.0158  0.0029  0.1000  -3.0521   0.0000   0.2560
  15.200   0.6793   0.17903   0.17472  -0.0167  0.0028  0.1000  -3.0405   0.0000   0.2572
  15.300   0.6823   0.18096   0.17665  -0.0177  0.0028  0.1000  -3.0298   0.0000   0.2584
  15.400   0.6854   0.18286   0.17856  -0.0187  0.0027  0.1000  -3.0197   0.0000   0.2596
  15.500   0.6885   0.18477   0.18047  -0.0196  0.0027  0.1000  -3.0102   0.0000   0.2608
  15.600   0.6917   0.18670   0.18240  -0.0206  0.0026  0.1000  -3.0011   0.0000   0.2619
  15.700   0.6948   0.18861   0.18431  -0.0215  0.0026  0.1000  -2.9921   0.0000   0.2630
  15.800   0.6981   0.19051   0.18621  -0.0225  0.0025  0.1000  -2.9840   0.0000   0.2641
  15.900   0.7014   0.19240   0.18811  -0.0234  0.0024  0.1000  -2.9778   0.0000   0.2652
  16.000   0.7048   0.19426   0.18997  -0.0244  0.0024  0.1000  -2.9744   0.0000   0.2663
  16.100   0.7082   0.19613   0.19184  -0.0253  0.0023  0.1000  -2.9703   0.0000   0.2673
  16.200   0.7114   0.19814   0.19385  -0.0263  0.0022  0.1000  -2.9498   0.0000   0.2684
  16.300   0.7148   0.20008   0.19580  -0.0273  0.0022  0.1000  -2.9344   0.0000   0.2695
  16.400   0.7182   0.20201   0.19773  -0.0282  0.0021  0.1000  -2.9224   0.0000   0.2705
  16.500   0.7217   0.20393   0.19965  -0.0292  0.0021  0.1000  -2.9110   0.0000   0.2716
  16.600   0.7252   0.20585   0.20157  -0.0302  0.0020  0.1000  -2.9044   0.0000   0.2726
  16.700   0.7288   0.20777   0.20349  -0.0311  0.0020  0.1000  -2.8999   0.0000   0.2736
  16.800   0.7324   0.20968   0.20541  -0.0321  0.0020  0.1000  -2.8959   0.0000   0.2745
  16.900   0.7360   0.21160   0.20733  -0.0330  0.0019  0.1000  -2.8921   0.0000   0.2755
  17.000   0.7396   0.21352   0.20926  -0.0340  0.0019  0.1000  -2.8885   0.0000   0.2764
  17.100   0.7433   0.21543   0.21117  -0.0350  0.0018  0.1000  -2.8858   0.0000   0.2774
  17.200   0.7470   0.21734   0.21308  -0.0359  0.0018  0.1000  -2.8850   0.0000   0.2783
  17.300   0.7507   0.21923   0.21497  -0.0369  0.0017  0.1000  -2.8870   0.0000   0.2792
  17.400   0.7544   0.22117   0.21692  -0.0378  0.0017  0.1000  -2.8755   0.0000   0.2801
  17.500   0.7580   0.22320   0.21895  -0.0388  0.0016  0.1000  -2.8595   0.0000   0.2810
  17.600   0.7617   0.22518   0.22093  -0.0398  0.0016  0.1000  -2.8479   0.0000   0.2820
  17.700   0.7654   0.22714   0.22290  -0.0408  0.0015  0.1000  -2.8395   0.0000   0.2828
  17.800   0.7692   0.22910   0.22486  -0.0417  0.0015  0.1000  -2.8315   0.0000   0.2837
  17.900   0.7730   0.23107   0.22684  -0.0427  0.0015  0.1000  -2.8238   0.0000   0.2846
  18.000   0.7768   0.23303   0.22880  -0.0437  0.0014  0.1000  -2.8164   0.0000   0.2854
  18.100   0.7807   0.23499   0.23077  -0.0447  0.0014  0.1000  -2.8093   0.0000   0.2862
  18.200   0.7845   0.23696   0.23274  -0.0456  0.0014  0.1000  -2.8061   0.0000   0.2871
  18.300   0.7884   0.23893   0.23471  -0.0466  0.0014  0.1000  -2.8064   0.0000   0.2879
  18.400   0.7923   0.24090   0.23669  -0.0476  0.0013  0.1000  -2.8069   0.0000   0.2887
  18.500   0.7962   0.24288   0.23867  -0.0486  0.0013  0.1000  -2.8083   0.0000   0.2895
  18.600   0.8001   0.24484   0.24064  -0.0495  0.0013  0.1000  -2.8113   0.0000   0.2902


