xflr5 v6.11

 Calculated polar for: NACA 63-015A AIRFOIL1

 1 1 Reynolds number fixed          Mach number fixed         

 xtrf =   0.100 (top)        0.100 (bottom)
 Mach =   0.600     Re =     2.312 e 6     Ncrit =  12.000

  alpha     CL        CD       CDp       Cm    Top Xtr Bot Xtr   Cpmin    Chinge    XCp    
 ------- -------- --------- --------- -------- ------- ------- -------- --------- ---------
  -2.000  -0.2672   0.01013   0.00297  -0.0055  0.1000  0.1000  -0.8161   0.0000   0.2229
  -1.000  -0.1336   0.01001   0.00279  -0.0026  0.1000  0.1000  -0.6879   0.0000   0.2244
   0.000  -0.0000   0.00997   0.00273   0.0000  0.1000  0.1000  -0.5996   0.0000   0.4616
   1.000   0.1336   0.01001   0.00279   0.0026  0.1000  0.1000  -0.6879   0.0000   0.2244
   2.000   0.2672   0.01013   0.00297   0.0055  0.1000  0.1000  -0.8161   0.0000   0.2229
   3.000   0.4005   0.01033   0.00328   0.0092  0.1000  0.1000  -1.1039   0.0000   0.2202
   4.000   0.5329   0.01063   0.00376   0.0140  0.1000  0.1000  -1.6993   0.0000   0.2162
   5.000   0.6539   0.01131   0.00461   0.0220  0.0816  0.1000  -2.5411   0.0000   0.2080
   6.000   0.7229   0.01302   0.00635   0.0389  0.0307  0.1000  -3.3173   0.0000   0.1865
   7.000   0.7880   0.01603   0.00970   0.0543  0.0222  0.1000  -4.1184   0.0000   0.1698
   8.000   0.8189   0.02211   0.01633   0.0684  0.0211  0.1000  -4.7227   0.0000   0.1532
   9.000   0.8144   0.03172   0.02663   0.0793  0.0205  0.1000  -4.9684   0.0000   0.1370
  10.000   0.7725   0.04647   0.04201   0.0814  0.0199  0.1000  -5.0079   0.0000   0.1266
  11.000   0.7040   0.06792   0.06390   0.0718  0.0187  0.1000  -4.7397   0.0000   0.1276
  12.000   0.6508   0.09293   0.08909   0.0567  0.0178  0.1000  -4.4756   0.0000   0.1409
  13.000   0.5974   0.12153   0.11768   0.0404  0.0163  0.1000  -3.7234   0.0000   0.1591
  14.000   0.5820   0.14875   0.14486   0.0263  0.0152  0.1000  -3.0527   0.0000   0.1806
  15.000   0.5956   0.17399   0.17009   0.0146  0.0153  0.1000  -2.6020   0.0000   0.2003
  16.000   0.6303   0.19523   0.19136   0.0057  0.0178  0.1000  -2.5450   0.0000   0.2146
  17.000   0.6604   0.22305   0.21919  -0.0062  0.0151  0.1000  -2.1864   0.0000   0.2320
  18.000   0.7019   0.24818   0.24434  -0.0161  0.0132  0.1000  -2.1713   0.0000   0.2444
  19.000   0.7452   0.27571   0.27190  -0.0263  0.0116  0.1000  -2.1738   0.0000   0.2553


