xflr5 v6.11

 Calculated polar for: NACA 63-015A AIRFOIL1

 1 1 Reynolds number fixed          Mach number fixed         

 xtrf =   0.010 (top)        0.100 (bottom)
 Mach =   0.400     Re =     1.540 e 6     Ncrit =   1.000

  alpha     CL        CD       CDp       Cm    Top Xtr Bot Xtr   Cpmin    Chinge    XCp    
 ------- -------- --------- --------- -------- ------- ------- -------- --------- ---------
  -2.000  -0.2364   0.01061   0.00249  -0.0021  0.0100  0.1000  -0.6918   0.0000   0.2348
  -1.000  -0.1203   0.01058   0.00237  -0.0006  0.0100  0.1000  -0.5806   0.0000   0.2388
   0.000  -0.0044   0.01063   0.00237   0.0008  0.0100  0.1000  -0.5069   0.0000   0.4308
   1.000   0.1110   0.01075   0.00247   0.0023  0.0100  0.1000  -0.5761   0.0000   0.2230
   2.000   0.2257   0.01095   0.00268   0.0040  0.0100  0.1000  -0.6696   0.0000   0.2258
   3.000   0.3393   0.01125   0.00301   0.0061  0.0100  0.1000  -0.9004   0.0000   0.2253
   4.000   0.4512   0.01166   0.00348   0.0087  0.0100  0.1000  -1.3729   0.0000   0.2235
   5.000   0.5605   0.01219   0.00411   0.0121  0.0100  0.1000  -1.9994   0.0000   0.2206
   6.000   0.6658   0.01288   0.00493   0.0165  0.0100  0.1000  -2.7031   0.0000   0.2165
   7.000   0.7630   0.01380   0.00601   0.0227  0.0089  0.1000  -3.4950   0.0000   0.2106
   8.000   0.8412   0.01494   0.00736   0.0325  0.0083  0.1000  -4.3208   0.0000   0.2005
   9.000   0.9159   0.01679   0.00946   0.0419  0.0077  0.1000  -5.2195   0.0000   0.1920
  10.000   0.9804   0.01953   0.01252   0.0511  0.0073  0.1000  -6.1739   0.0000   0.1840
  11.000   1.0321   0.02374   0.01713   0.0594  0.0069  0.1000  -7.1148   0.0000   0.1767
  12.000   1.0630   0.03021   0.02410   0.0663  0.0065  0.1000  -7.9492   0.0000   0.1698
  13.000   1.0620   0.04026   0.03473   0.0704  0.0061  0.1000  -8.5025   0.0000   0.1636
  14.000   1.0269   0.05560   0.05067   0.0686  0.0058  0.1000  -8.6622   0.0000   0.1605
  15.000   0.9711   0.07678   0.07234   0.0593  0.0056  0.1000  -8.5319   0.0000   0.1638
  16.000   0.9082   0.10290   0.09879   0.0443  0.0056  0.1000  -8.1326   0.0000   0.1740
  17.000   0.8410   0.13224   0.12826   0.0268  0.0056  0.1000  -7.3361   0.0000   0.1894
  18.000   0.7695   0.16571   0.16177   0.0063  0.0055  0.1000  -5.8869   0.0000   0.2121
  19.000   0.7221   0.20095   0.19697  -0.0127  0.0043  0.1000  -3.9708   0.0000   0.2377


