xflr5 v6.11

 Calculated polar for: NACA 63-015A AIRFOIL1

 1 1 Reynolds number fixed          Mach number fixed         

 xtrf =   0.010 (top)        0.100 (bottom)
 Mach =   0.200     Re =     0.770 e 6     Ncrit =   1.000

  alpha     CL        CD       CDp       Cm    Top Xtr Bot Xtr   Cpmin    Chinge    XCp    
 ------- -------- --------- --------- -------- ------- ------- -------- --------- ---------
  -2.000  -0.2177   0.01198   0.00256  -0.0018  0.0100  0.1000  -0.6365   0.0000   0.2358
  -1.000  -0.1106   0.01194   0.00244  -0.0006  0.0100  0.1000  -0.5329   0.0000   0.2391
   0.000  -0.0036   0.01199   0.00242   0.0006  0.0100  0.1000  -0.4660   0.0000   0.4253
   1.000   0.1031   0.01211   0.00252   0.0019  0.0100  0.1000  -0.5295   0.0000   0.2256
   2.000   0.2091   0.01232   0.00273   0.0033  0.0100  0.1000  -0.6183   0.0000   0.2282
   3.000   0.3140   0.01262   0.00307   0.0048  0.0100  0.1000  -0.8278   0.0000   0.2280
   4.000   0.4173   0.01303   0.00354   0.0067  0.0100  0.1000  -1.2393   0.0000   0.2269
   5.000   0.5184   0.01355   0.00415   0.0090  0.0100  0.1000  -1.7750   0.0000   0.2251
   6.000   0.6165   0.01420   0.00492   0.0118  0.0100  0.1000  -2.3597   0.0000   0.2225
   7.000   0.7101   0.01501   0.00589   0.0153  0.0100  0.1000  -3.0034   0.0000   0.2192
   8.000   0.7970   0.01601   0.00706   0.0200  0.0100  0.1000  -3.6887   0.0000   0.2146
   9.000   0.8678   0.01723   0.00846   0.0274  0.0093  0.1000  -4.3703   0.0000   0.2070
  10.000   0.9341   0.01902   0.01047   0.0345  0.0087  0.1000  -5.1044   0.0000   0.2003
  11.000   0.9934   0.02141   0.01312   0.0413  0.0081  0.1000  -5.8483   0.0000   0.1942
  12.000   1.0448   0.02468   0.01668   0.0472  0.0078  0.1000  -6.6062   0.0000   0.1889
  13.000   1.0875   0.02911   0.02142   0.0521  0.0075  0.1000  -7.3532   0.0000   0.1844
  14.000   1.1198   0.03496   0.02762   0.0556  0.0071  0.1000  -8.0687   0.0000   0.1806
  15.000   1.1387   0.04275   0.03581   0.0574  0.0069  0.1000  -8.7075   0.0000   0.1777
  16.000   1.1429   0.05321   0.04668   0.0567  0.0066  0.1000  -9.2353   0.0000   0.1762
  17.000   1.1300   0.06733   0.06125   0.0525  0.0064  0.1000  -9.5986   0.0000   0.1769
  18.000   1.0934   0.08685   0.08124   0.0436  0.0063  0.1000  -9.6616   0.0000   0.1809
  19.000   1.0277   0.11374   0.10861   0.0288  0.0062  0.1000  -9.2420   0.0000   0.1903


