xflr5 v6.11

 Calculated polar for: NACA 63-015A AIRFOIL1

 1 1 Reynolds number fixed          Mach number fixed         

 xtrf =   0.010 (top)        0.100 (bottom)
 Mach =   0.500     Re =     1.926 e 6     Ncrit =   1.000

  alpha     CL        CD       CDp       Cm    Top Xtr Bot Xtr   Cpmin    Chinge    XCp    
 ------- -------- --------- --------- -------- ------- ------- -------- --------- ---------
  -2.000  -0.2508   0.01034   0.00265  -0.0030  0.0100  0.1000  -0.7419   0.0000   0.2317
  -1.000  -0.1278   0.01030   0.00253  -0.0010  0.0100  0.1000  -0.6239   0.0000   0.2364
   0.000  -0.0052   0.01035   0.00252   0.0009  0.0100  0.1000  -0.5445   0.0000   0.4307
   1.000   0.1168   0.01047   0.00263   0.0030  0.0100  0.1000  -0.6183   0.0000   0.2183
   2.000   0.2379   0.01070   0.00287   0.0053  0.0100  0.1000  -0.7186   0.0000   0.2213
   3.000   0.3576   0.01102   0.00324   0.0082  0.0100  0.1000  -0.9645   0.0000   0.2203
   4.000   0.4752   0.01147   0.00377   0.0119  0.0100  0.1000  -1.4754   0.0000   0.2175
   5.000   0.5889   0.01206   0.00449   0.0170  0.0100  0.1000  -2.1797   0.0000   0.2131
   6.000   0.6949   0.01287   0.00546   0.0240  0.0094  0.1000  -2.9838   0.0000   0.2065
   7.000   0.7800   0.01395   0.00676   0.0352  0.0084  0.1000  -3.8528   0.0000   0.1947
   8.000   0.8624   0.01582   0.00892   0.0461  0.0079  0.1000  -4.8599   0.0000   0.1850
   9.000   0.9293   0.01901   0.01252   0.0572  0.0075  0.1000  -5.8846   0.0000   0.1751
  10.000   0.9585   0.02534   0.01947   0.0680  0.0070  0.1000  -6.6168   0.0000   0.1637
  11.000   0.9384   0.03635   0.03119   0.0754  0.0066  0.1000  -6.8488   0.0000   0.1520
  12.000   0.8869   0.05276   0.04823   0.0743  0.0061  0.1000  -6.7781   0.0000   0.1461
  13.000   0.8261   0.07468   0.07058   0.0638  0.0060  0.1000  -6.5915   0.0000   0.1504
  14.000   0.7706   0.10057   0.09670   0.0485  0.0059  0.1000  -6.2634   0.0000   0.1629
  15.000   0.7207   0.12781   0.12397   0.0328  0.0059  0.1000  -5.6560   0.0000   0.1790
  16.000   0.6824   0.15660   0.15271   0.0162  0.0055  0.1000  -4.6930   0.0000   0.1997
  17.000   0.6759   0.18286   0.17894   0.0024  0.0047  0.1000  -3.8795   0.0000   0.2189
  18.000   0.6946   0.20501   0.20110  -0.0086  0.0039  0.1000  -3.4899   0.0000   0.2337
  19.000   0.7232   0.22559   0.22171  -0.0186  0.0031  0.1000  -3.3037   0.0000   0.2458


