xflr5 v6.11

 Calculated polar for: NACA 63-015A AIRFOIL1

 1 1 Reynolds number fixed          Mach number fixed         

 xtrf =   0.010 (top)        0.100 (bottom)
 Mach =   0.100     Re =     0.385 e 6     Ncrit =   1.000

  alpha     CL        CD       CDp       Cm    Top Xtr Bot Xtr   Cpmin    Chinge    XCp    
 ------- -------- --------- --------- -------- ------- ------- -------- --------- ---------
  -2.000  -0.2101   0.01387   0.00296  -0.0023  0.0100  0.1000  -0.6214   0.0000   0.2329
  -1.000  -0.1067   0.01382   0.00280  -0.0009  0.0100  0.1000  -0.5199   0.0000   0.2360
   0.000  -0.0033   0.01386   0.00277   0.0006  0.0100  0.1000  -0.4554   0.0000   0.4161
   1.000   0.0997   0.01400   0.00288   0.0020  0.0100  0.1000  -0.5170   0.0000   0.2235
   2.000   0.2020   0.01423   0.00313   0.0036  0.0100  0.1000  -0.6044   0.0000   0.2258
   3.000   0.3031   0.01458   0.00353   0.0054  0.0100  0.1000  -0.8128   0.0000   0.2256
   4.000   0.4023   0.01505   0.00410   0.0075  0.0100  0.1000  -1.1864   0.0000   0.2244
   5.000   0.4990   0.01565   0.00483   0.0099  0.0100  0.1000  -1.6885   0.0000   0.2225
   6.000   0.5921   0.01642   0.00576   0.0129  0.0100  0.1000  -2.2333   0.0000   0.2199
   7.000   0.6802   0.01737   0.00691   0.0166  0.0100  0.1000  -2.8215   0.0000   0.2164
   8.000   0.7609   0.01854   0.00830   0.0213  0.0100  0.1000  -3.4421   0.0000   0.2117
   9.000   0.8273   0.01995   0.00996   0.0283  0.0100  0.1000  -4.0520   0.0000   0.2044
  10.000   0.8903   0.02197   0.01227   0.0345  0.0100  0.1000  -4.7033   0.0000   0.1985
  11.000   0.9458   0.02468   0.01528   0.0403  0.0099  0.1000  -5.3520   0.0000   0.1932
  12.000   0.9936   0.02828   0.01922   0.0453  0.0093  0.1000  -6.0117   0.0000   0.1886
  13.000   1.0329   0.03303   0.02432   0.0491  0.0087  0.1000  -6.6508   0.0000   0.1849
  14.000   1.0622   0.03920   0.03088   0.0517  0.0084  0.1000  -7.2589   0.0000   0.1819
  15.000   1.0792   0.04726   0.03938   0.0525  0.0081  0.1000  -7.7927   0.0000   0.1798
  16.000   1.0826   0.05796   0.05055   0.0509  0.0078  0.1000  -8.2307   0.0000   0.1792
  17.000   1.0694   0.07244   0.06553   0.0460  0.0076  0.1000  -8.5141   0.0000   0.1809
  18.000   1.0339   0.09252   0.08615   0.0364  0.0075  0.1000  -8.5277   0.0000   0.1861
  19.000   0.9686   0.12077   0.11496   0.0206  0.0074  0.1000  -8.0674   0.0000   0.1977


