xflr5 v6.11

 Calculated polar for: NACA 63-015A AIRFOIL1

 1 1 Reynolds number fixed          Mach number fixed         

 xtrf =   0.010 (top)        0.100 (bottom)
 Mach =   0.300     Re =     1.156 e 6     Ncrit =   1.000

  alpha     CL        CD       CDp       Cm    Top Xtr Bot Xtr   Cpmin    Chinge    XCp    
 ------- -------- --------- --------- -------- ------- ------- -------- --------- ---------
  -2.000  -0.2258   0.01111   0.00245  -0.0018  0.0100  0.1000  -0.6585   0.0000   0.2361
  -1.000  -0.1148   0.01108   0.00234  -0.0005  0.0100  0.1000  -0.5519   0.0000   0.2397
   0.000  -0.0039   0.01112   0.00233   0.0007  0.0100  0.1000  -0.4821   0.0000   0.4292
   1.000   0.1066   0.01124   0.00243   0.0020  0.0100  0.1000  -0.5479   0.0000   0.2252
   2.000   0.2164   0.01144   0.00263   0.0034  0.0100  0.1000  -0.6391   0.0000   0.2279
   3.000   0.3251   0.01174   0.00295   0.0051  0.0100  0.1000  -0.8551   0.0000   0.2277
   4.000   0.4324   0.01213   0.00340   0.0072  0.0100  0.1000  -1.2973   0.0000   0.2264
   5.000   0.5374   0.01264   0.00399   0.0097  0.0100  0.1000  -1.8703   0.0000   0.2242
   6.000   0.6392   0.01328   0.00475   0.0130  0.0100  0.1000  -2.5037   0.0000   0.2212
   7.000   0.7359   0.01409   0.00571   0.0173  0.0098  0.1000  -3.2102   0.0000   0.2171
   8.000   0.8226   0.01512   0.00691   0.0235  0.0089  0.1000  -3.9643   0.0000   0.2110
   9.000   0.8937   0.01646   0.00845   0.0321  0.0084  0.1000  -4.7252   0.0000   0.2023
  10.000   0.9614   0.01844   0.01066   0.0402  0.0078  0.1000  -5.5569   0.0000   0.1951
  11.000   1.0200   0.02123   0.01373   0.0478  0.0074  0.1000  -6.4038   0.0000   0.1884
  12.000   1.0697   0.02516   0.01799   0.0543  0.0071  0.1000  -7.2599   0.0000   0.1826
  13.000   1.1076   0.03061   0.02381   0.0596  0.0067  0.1000  -8.0890   0.0000   0.1776
  14.000   1.1298   0.03811   0.03173   0.0631  0.0064  0.1000  -8.8346   0.0000   0.1734
  15.000   1.1332   0.04852   0.04260   0.0637  0.0062  0.1000  -9.4349   0.0000   0.1706
  16.000   1.1135   0.06327   0.05784   0.0601  0.0059  0.1000  -9.7702   0.0000   0.1704
  17.000   1.0678   0.08388   0.07892   0.0508  0.0058  0.1000  -9.7537   0.0000   0.1743
  18.000   0.9955   0.11161   0.10707   0.0351  0.0057  0.1000  -9.2186   0.0000   0.1843
  19.000   0.9070   0.14481   0.14055   0.0147  0.0058  0.1000  -8.0738   0.0000   0.2016


