xflr5 v6.11

 Calculated polar for: NACA 63-015A AIRFOIL1

 1 1 Reynolds number fixed          Mach number fixed         

 xtrf =   0.010 (top)        0.100 (bottom)
 Mach =   0.000     Re =     0.200 e 6     Ncrit =  20.000

  alpha     CL        CD       CDp       Cm    Top Xtr Bot Xtr   Cpmin    Chinge    XCp    
 ------- -------- --------- --------- -------- ------- ------- -------- --------- ---------
  -2.000  -0.2045   0.01628   0.00355  -0.0030  0.0100  0.1000  -0.6144   0.0000   0.2291
  -1.000  -0.1039   0.01620   0.00333  -0.0012  0.0100  0.1000  -0.5181   0.0000   0.2322
   0.000  -0.0032   0.01623   0.00328   0.0005  0.0100  0.1000  -0.4552   0.0000   0.4088
   1.000   0.0972   0.01637   0.00341   0.0023  0.0100  0.1000  -0.5151   0.0000   0.2200
   2.000   0.1967   0.01664   0.00371   0.0042  0.0100  0.1000  -0.5974   0.0000   0.2222
   3.000   0.2947   0.01705   0.00421   0.0063  0.0100  0.1000  -0.7995   0.0000   0.2218
   4.000   0.3907   0.01760   0.00491   0.0087  0.0100  0.1000  -1.1478   0.0000   0.2205
   5.000   0.4836   0.01833   0.00583   0.0115  0.0100  0.1000  -1.6233   0.0000   0.2184
   6.000   0.5725   0.01926   0.00699   0.0149  0.0100  0.1000  -2.1409   0.0000   0.2155
   7.000   0.6557   0.02042   0.00843   0.0190  0.0100  0.1000  -2.6896   0.0000   0.2117
   8.000   0.7300   0.02184   0.01016   0.0242  0.0100  0.1000  -3.2640   0.0000   0.2064
   9.000   0.7926   0.02365   0.01231   0.0309  0.0100  0.1000  -3.8312   0.0000   0.1995
  10.000   0.8515   0.02614   0.01517   0.0367  0.0100  0.1000  -4.4282   0.0000   0.1941
  11.000   0.9030   0.02940   0.01884   0.0418  0.0100  0.1000  -5.0183   0.0000   0.1894
  12.000   0.9463   0.03367   0.02355   0.0460  0.0100  0.1000  -5.6041   0.0000   0.1855
  13.000   0.9799   0.03925   0.02962   0.0490  0.0100  0.1000  -6.1514   0.0000   0.1823
  14.000   1.0015   0.04664   0.03753   0.0504  0.0100  0.1000  -6.6489   0.0000   0.1801
  15.000   1.0079   0.05655   0.04800   0.0496  0.0100  0.1000  -7.0411   0.0000   0.1791
  16.000   0.9963   0.07031   0.06236   0.0454  0.0100  0.1000  -7.2867   0.0000   0.1805
  17.000   0.9604   0.09027   0.08296   0.0361  0.0100  0.1000  -7.2692   0.0000   0.1861
  18.000   0.8784   0.12317   0.11657   0.0175  0.0100  0.1000  -6.5955   0.0000   0.2016
  19.000   0.7116   0.18595   0.17968  -0.0152  0.0100  0.1000  -3.4606   0.0000   0.2431


